*KEYWORD
*TITLE
                                                                                
$
*DATABASE_FORMAT
         0
$
$
$$$$$$$$$$$$$$$$$$$$$$$$$$$$$$$$$$$$$$$$$$$$$$$$$$$$$$$$$$$$$$$$$$$$$$$$$$$$$$$$
$                               NODE DEFINITIONS                               $
$$$$$$$$$$$$$$$$$$$$$$$$$$$$$$$$$$$$$$$$$$$$$$$$$$$$$$$$$$$$$$$$$$$$$$$$$$$$$$$$
$
*NODE
       1 7.000000000E-01-1.095445115E+00 0.000000000E+00       0       0
       2 7.960204194E-17-1.095445115E+00-7.000000000E-01       0       0
       3 6.865496963E-01-1.095445115E+00-1.365632254E-01       0       0
       4 6.467156727E-01-1.095445115E+00-2.678784027E-01       0       0
       5 5.820287285E-01-1.095445115E+00-3.888991632E-01       0       0
       6 4.949747467E-01-1.095445115E+00-4.949747470E-01       0       0
       7 3.888991629E-01-1.095445115E+00-5.820287288E-01       0       0
       8 2.678784023E-01-1.095445115E+00-6.467156729E-01       0       0
       9 1.365632250E-01-1.095445115E+00-6.865496964E-01       0       0
      10 7.960204194E-17 0.000000000E+00-1.300000000E+00       0       0
      11 7.960204194E-17-1.624296050E-01-1.289812631E+00       0       0
      12 7.960204194E-17-3.223134711E-01-1.259410190E+00       0       0
      13 7.960204194E-17-4.771457585E-01-1.209269170E+00       0       0
      14 7.960204194E-17-6.244997998E-01-1.140175425E+00       0       0
      15 7.960204194E-17-7.620661338E-01-1.053211853E+00       0       0
      16 7.960204194E-17-8.876887004E-01-9.497414234E-01       0       0
      17 7.960204194E-17-9.993986327E-01-8.313858147E-01       0       0
      18 1.300000000E+00 0.000000000E+00 0.000000000E+00       0       0
      19 1.275020865E+00 0.000000000E+00-2.536174187E-01       0       0
      20 1.201043392E+00 0.000000000E+00-4.974884622E-01       0       0
$ ... 29667 like lines cut
$
$
$$$$$$$$$$$$$$$$$$$$$$$$$$$$$$$$$$$$$$$$$$$$$$$$$$$$$$$$$$$$$$$$$$$$$$$$$$$$$$$$
$                             SECTION DEFINITIONS                              $
$$$$$$$$$$$$$$$$$$$$$$$$$$$$$$$$$$$$$$$$$$$$$$$$$$$$$$$$$$$$$$$$$$$$$$$$$$$$$$$$
$
*SECTION_SOLID
         1         1
$
$
$$$$$$$$$$$$$$$$$$$$$$$$$$$$$$$$$$$$$$$$$$$$$$$$$$$$$$$$$$$$$$$$$$$$$$$$$$$$$$$$
$                             MATERIAL DEFINITIONS                             $
$$$$$$$$$$$$$$$$$$$$$$$$$$$$$$$$$$$$$$$$$$$$$$$$$$$$$$$$$$$$$$$$$$$$$$$$$$$$$$$$
$
*MAT_JOHNSON_COOK
        1          7.830      0.770      
7.920E-03      5.100E-03      0.260      0.140E-01      1.03      0.1793E+04      294      0.100E-05    
0.477E-05      -9.00E+00      3.000      0.0000000      5.00      0.00000000     0.00      0.0000000    
0.00    
$
*EOS_GRUNEISEN
         1  0.4569      1.490      0.00      0.00      2.17      0.46      0.00    
  1.00    
*MAT_JOHNSON_COOK
        2          7.830      0.770      
7.920E-03      5.100E-03      0.260      0.140E-01      1.03      0.1793E+04      294      0.100E-05    
0.477E-05      -9.00E+00      3.000      0.0000000      0.80      0.00000000     0.00      0.0000000    
0.00   
$
*EOS_GRUNEISEN
         2  0.4569      1.490      0.00      0.00      2.17      0.46      0.00    
  1.00    
*MAT_JOHNSON_COOK
        3          7.830      0.770      
7.920E-03      5.100E-03      0.260      0.140E-01      1.03      0.1793E+04      294      0.100E-05    
0.477E-05      -9.00E+00      3.000      0.0000000      0.80      0.00000000     0.00      0.0000000    
0.00    
$
*EOS_GRUNEISEN
         3  0.4569      1.490      0.00      0.00      2.17      0.46      0.00    
  1.00     
$
$
$
$$$$$$$$$$$$$$$$$$$$$$$$$$$$$$$$$$$$$$$$$$$$$$$$$$$$$$$$$$$$$$$$$$$$$$$$$$$$$$$$
$                              PARTS DEFINITIONS                               $
$$$$$$$$$$$$$$$$$$$$$$$$$$$$$$$$$$$$$$$$$$$$$$$$$$$$$$$$$$$$$$$$$$$$$$$$$$$$$$$$
$
$
*PART
Part          1 for Mat         1 and Elem Type         1
         1         1         1         1         0         0         0
$
*PART
Part          2 for Mat         2 and Elem Type         1
         2         1         2         2         0         0         0
$
*PART
Part          3 for Mat         3 and Elem Type         1
         3         1         3         3         0         0         0
$
$
$$$$$$$$$$$$$$$$$$$$$$$$$$$$$$$$$$$$$$$$$$$$$$$$$$$$$$$$$$$$$$$$$$$$$$$$$$$$$$$$
$                             ELEMENT DEFINITIONS                              $
$$$$$$$$$$$$$$$$$$$$$$$$$$$$$$$$$$$$$$$$$$$$$$$$$$$$$$$$$$$$$$$$$$$$$$$$$$$$$$$$
$
*ELEMENT_SOLID
       1       1     164     224     235     165     171     298     361     172
       2       1     224     225     234     235     298     305     382     361
       3       1     225     226     233     234     305     312     403     382
       4       1     226     217     220     233     312     291     354     403
       5       1     165     235     232     166     172     361     368     173
       6       1     235     234     231     232     361     382     389     368
       7       1     234     233     230     231     382     403     410     389
       8       1     233     220     219     230     403     354     347     410
       9       1     166     232     229     167     173     368     375     174
      10       1     232     231     228     229     368     389     396     375
      11       1     231     230     227     228     389     410     417     396
      12       1     230     219     218     227     410     347     340     417
      13       1     167     229      32       1     174     375      33       3
      14       1     229     228      31      32     375     396      34      33
      15       1     228     227      30      31     396     417      35      34
      16       1     227     218      29      30     417     340      36      35
      17       1     171     298     361     172     178     299     362     179
      18       1     298     305     382     361     299     306     383     362
      19       1     305     312     403     382     306     313     404     383
      20       1     312     291     354     403     313     292     355     404
$ ... 22988 like lines cut
$
$
$$$$$$$$$$$$$$$$$$$$$$$$$$$$$$$$$$$$$$$$$$$$$$$$$$$$$$$$$$$$$$$$$$$$$$$$$$$$$$$$
$                              COORDINATE SYSTEMS                              $
$$$$$$$$$$$$$$$$$$$$$$$$$$$$$$$$$$$$$$$$$$$$$$$$$$$$$$$$$$$$$$$$$$$$$$$$$$$$$$$$
$
*SET_SEGMENT
         1     0.000     0.000     0.000     0.000
      3834      4473      4652      3863     0.000     0.000     0.000     0.000
      4473      4474      4623      4652     0.000     0.000     0.000     0.000
      4474      4475      4594      4623     0.000     0.000     0.000     0.000
      4475      4453      4565      4594     0.000     0.000     0.000     0.000
      3863      4652      4651      3862     0.000     0.000     0.000     0.000
      4652      4623      4622      4651     0.000     0.000     0.000     0.000
      4623      4594      4593      4622     0.000     0.000     0.000     0.000
      4594      4565      4564      4593     0.000     0.000     0.000     0.000
      3862      4651      4650      3861     0.000     0.000     0.000     0.000
      4651      4622      4621      4650     0.000     0.000     0.000     0.000
      4622      4593      4592      4621     0.000     0.000     0.000     0.000
      4593      4564      4563      4592     0.000     0.000     0.000     0.000
      3861      4650      4649      3860     0.000     0.000     0.000     0.000
      4650      4621      4620      4649     0.000     0.000     0.000     0.000
      4621      4592      4591      4620     0.000     0.000     0.000     0.000
      4592      4563      4562      4591     0.000     0.000     0.000     0.000
      3860      4649      4648      3859     0.000     0.000     0.000     0.000
      4649      4620      4619      4648     0.000     0.000     0.000     0.000
      4620      4591      4590      4619     0.000     0.000     0.000     0.000
$ ... 781 like lines cut
*BOUNDARY_NON_REFLECTING
         1         0         0
$
$
$$$$$$$$$$$$$$$$$$$$$$$$$$$$$$$$$$$$$$$$$$$$$$$$$$$$$$$$$$$$$$$$$$$$$$$$$$$$$$$$
$                               LOAD DEFINITIONS                               $
$$$$$$$$$$$$$$$$$$$$$$$$$$$$$$$$$$$$$$$$$$$$$$$$$$$$$$$$$$$$$$$$$$$$$$$$$$$$$$$$
$
$
$
$$$$$$$$$$$$$$$$$$$$$$$$$$$$$$$$$$$$$$$$$$$$$$$$$$$$$$$$$$$$$$$$$$$$$$$$$$$$$$$$
$                                RIGID BOUNDRIES                               $
$$$$$$$$$$$$$$$$$$$$$$$$$$$$$$$$$$$$$$$$$$$$$$$$$$$$$$$$$$$$$$$$$$$$$$$$$$$$$$$$
$
$
$
$$$$$$$$$$$$$$$$$$$$$$$$$$$$$$$$$$$$$$$$$$$$$$$$$$$$$$$$$$$$$$$$$$$$$$$$$$$$$$$$
$                             BOUNDARY DEFINITIONS                             $
$$$$$$$$$$$$$$$$$$$$$$$$$$$$$$$$$$$$$$$$$$$$$$$$$$$$$$$$$$$$$$$$$$$$$$$$$$$$$$$$
$
*SET_NODE_LIST
         1     0.000     0.000     0.000     0.000
         1        18        26        27        28        29        30        31
        32        82        83        84        85        86        87        88
        89       161       162       163       164       165       166       167
       217       218       219       220       221       222       223       224
       225       226       227       228       229       230       231       232
       233       234       235       236       237       238       239       240
       241       242       243       244       245       246       247       248
       249       250       251       252       253       570       578       579
       580       581       582       583       584       585       586       587
       588       589       590       591       592       593       594       595
       596       730       731       732       733       734       735       736
       737       821       822       823       824       825       826       827
       828       829       830       831       832       833       834       835
       836       837       838       839       973       974       975       976
       977       978       979       980       981       982       983       984
       985       986       987       988       989       990       991       992
       993       994       995       996       997       998       999      1000
      1001      1002      1003      1004      1005      1006      1007      1008
      1009      1010      1011      1012      1013      1014      1015      1016
$ ... 99 like lines cut
*BOUNDARY_SPC_SET
         1         0         0         0         1         0         0         0
*SET_NODE_LIST
         2     0.000     0.000     0.000     0.000
         2        10        11        12        13        14        15        16
        17        90        98        99       100       101       102       103
       104       154       155       156       157       158       159       160
       254       255       256       257       258       259       260       261
       262       263       264       265       266       267       268       269
       270       271       272       273       274       275       276       277
       278       279       280       281       282       283       284       285
       286       287       288       289       290       550       551       552
       553       554       555       556       557       558       559       560
       561       562       563       564       565       566       567       568
       569       738       746       747       748       749       750       751
       752       802       803       804       805       806       807       808
       809       810       811       812       813       814       815       816
       817       818       819       820      1106      1107      1108      1109
      1110      1111      1112      1113      1114      1115      1116      1117
      1118      1119      1120      1121      1122      1123      1124      1125
      1126      1127      1128      1129      1130      1131      1132      1133
      1134      1135      1136      1137      1138      1139      1140      1141
      1142      1143      1144      1145      1146      1147      1148      1149
$ ... 99 like lines cut
*BOUNDARY_SPC_SET
         2         0         1         0         0         0         0         0
*SET_NODE_LIST
         3     0.000     0.000     0.000     0.000
      2170      2222      2274      2275      2276      2277      2278      2279
      2280      2281      2282      2283      2284      2285      2286      2287
      2288      2289      2290      2291      2292      3262      3314      3315
      3316      3317      3318      3319      3320      7083      7113      7143
      7144      7145     20088     20118     20148     20149     20150
*BOUNDARY_SPC_SET
         3         0         1         0         1         0         0         0
$
$
$$$$$$$$$$$$$$$$$$$$$$$$$$$$$$$$$$$$$$$$$$$$$$$$$$$$$$$$$$$$$$$$$$$$$$$$$$$$$$$$
$                              CONTACT DEFINITIONS                             $
$$$$$$$$$$$$$$$$$$$$$$$$$$$$$$$$$$$$$$$$$$$$$$$$$$$$$$$$$$$$$$$$$$$$$$$$$$$$$$$$
$
*CONTACT_ERODING_SURFACE_TO_SURFACE
     2         1         3         3         0         0         0         0
 0.000     0.000     0.000     0.000     0.000         1     0.000    0.1000E+08
 1.000     1.000     0.000     0.000     1.000     1.000     1.000     1.000    
     1         1         1
*CONTACT_ERODING_SURFACE_TO_SURFACE
     3         1         3         3         0         0         0         0
 0.000     0.000     0.000     0.000     0.000         1     0.000    0.1000E+08
 1.000     1.000     0.000     0.000     1.000     1.000     1.000     1.000    
     1         1         1
*CONTACT_ERODING_SURFACE_TO_SURFACE
     3         2         3         3         0         0         0         0
 0.000     0.000     0.000     0.000     0.000         1     0.000    0.1000E+08
 1.000     1.000     0.000     0.000     1.000     1.000     1.000     1.000    
     1         1         1
$
$$$$$$$$$$$$$$$$$$$$$$$$$$$$$$$$$$$$$$$$$$$$$$$$$$$$$$$$$$$$$$$$$$$$$$$$$$$$$$$$
$                              CONTROL OPTIONS                                 $
$$$$$$$$$$$$$$$$$$$$$$$$$$$$$$$$$$$$$$$$$$$$$$$$$$$$$$$$$$$$$$$$$$$$$$$$$$$$$$$$
$
*CONTROL_ENERGY
         1         2         2         1
*CONTROL_BULK_VISCOSITY
  1.00     0.600E-01
*CONTROL_CONTACT
  10.00000   0.00000         2         0         1         1         1
         0         0        10         0  4.00    
*CONTROL_TIMESTEP
    0.0000    0.9000         0  0.00      0.00    
*CONTROL_TERMINATION
  80.0             0   0.00000   0.00000   0.00000
$
$$$$$$$$$$$$$$$$$$$$$$$$$$$$$$$$$$$$$$$$$$$$$$$$$$$$$$$$$$$$$$$$$$$$$$$$$$$$$$$$
$                                 TIME HISTORY                                 $
$$$$$$$$$$$$$$$$$$$$$$$$$$$$$$$$$$$$$$$$$$$$$$$$$$$$$$$$$$$$$$$$$$$$$$$$$$$$$$$$
$
*DATABASE_BINARY_D3PLOT
 2.000    
*DATABASE_BINARY_D3THDT
 2.000    
*DATABASE_BINARY_D3DUMP
       649
$
$$$$$$$$$$$$$$$$$$$$$$$$$$$$$$$$$$$$$$$$$$$$$$$$$$$$$$$$$$$$$$$$$$$$$$$$$$$$$$$$
$                              DATABASE OPTIONS                                $
$$$$$$$$$$$$$$$$$$$$$$$$$$$$$$$$$$$$$$$$$$$$$$$$$$$$$$$$$$$$$$$$$$$$$$$$$$$$$$$$
$
*DATABASE_EXTENT_BINARY
         0         0         3         1         0         0         0         0
         0         0         4         0         0         0
$
$$$$$$$$$$$$$$$$$$$$$$$$$$$$$$$$$$$$$$$$$$$$$$$$$$$$$$$$$$$$$$$$$$$$$$$$$$$$$$$$
$                         INITIAL VELOCITY DEFINITIONS                         $
$$$$$$$$$$$$$$$$$$$$$$$$$$$$$$$$$$$$$$$$$$$$$$$$$$$$$$$$$$$$$$$$$$$$$$$$$$$$$$$$
$
*SET_NODE_LIST
         4     0.000     0.000     0.000     0.000
         1         2         3         4         5         6         7         8
         9        10        11        12        13        14        15        16
        17        18        19        20        21        22        23        24
        25        26        27        28        29        30        31        32
        33        34        35        36        37        38        39        40
        41        42        43        44        45        46        47        48
        49        50        51        52        53        54        55        56
        57        58        59        60        61        62        63        64
        65        66        67        68        69        70        71        72
        73        74        75        76        77        78        79        80
        81        82        83        84        85        86        87        88
        89        90        91        92        93        94        95        96
        97        98        99       100       101       102       103       104
       105       106       107       108       109       110       111       112
       113       114       115       116       117       118       119       120
       121       122       123       124       125       126       127       128
       129       130       131       132       133       134       135       136
       137       138       139       140       141       142       143       144
       145       146       147       148       149       150       151       152
$ ... 441 like lines cut
*INITIAL_VELOCITY
         4         0         0
 0.000     0.000     0.000     0.000     0.000     0.000    
*END
